72
[[9.827000 0.0 0.0] [-4.913499979632872 8.510431654748645 0.0] [1.9401036429757132e-8 3.360358072297309e-8 10.809]]
 O         1.374000        1.137000        0.642000
 O         0.298000        1.759000        2.961000
 O         3.242000        0.622000        4.245000
 O         0.785000        3.634000        1.159000
 O         2.754000        2.497000        2.444000
 O        -1.082000        3.118000        4.763000
 Si        2.308000        0.000000        0.000000
 Si       -1.154000        1.999000        3.603000
 Si        1.303000        2.257000        1.802000
 O         6.288000        1.137000        0.642000
 O         5.211000        1.759000        2.961000
 O         8.156000        0.622000        4.245000
 O         5.699000        3.634000        1.159000
 O         7.668000        2.497000        2.444000
 O         3.831000        3.118000        4.763000
 Si        7.222000        0.000000        0.000000
 Si        3.760000        1.999000        3.603000
 Si        6.217000        2.257000        1.802000
 O        -1.082000        5.392000        0.642000
 O        -2.159000        6.014000        2.961000
 O         0.785000        4.877000        4.245000
 O        -1.672000        7.889000        1.159000
 O         0.298000        6.752000        2.444000
 O        -3.539000        7.374000        4.763000
 Si       -0.149000        4.255000        0.000000
 Si       -3.611000        6.254000        3.603000
 Si       -1.154000        6.512000        1.802000
 O         3.831000        5.392000        0.642000
 O         2.754000        6.014000        2.961000
 O         5.699000        4.877000        4.245000
 O         3.242000        7.889000        1.159000
 O         5.211000        6.752000        2.444000
 O         1.374000        7.374000        4.763000
 Si        4.765000        4.255000        0.000000
 Si        1.303000        6.254000        3.603000
 Si        3.760000        6.512000        1.802000
 O         1.374000        1.137000        6.047000
 O         0.298000        1.759000        8.366000
 O         3.242000        0.622000        9.650000
 O         0.785000        3.634000        6.564000
 O         2.754000        2.497000        7.848000
 O        -1.082000        3.118000       10.167000
 Si        2.308000        0.000000        5.405000
 Si       -1.154000        1.999000        9.008000
 Si        1.303000        2.257000        7.206000
 O         6.288000        1.137000        6.047000
 O         5.211000        1.759000        8.366000
 O         8.156000        0.622000        9.650000
 O         5.699000        3.634000        6.564000
 O         7.668000        2.497000        7.848000
 O         3.831000        3.118000       10.167000
 Si        7.222000        0.000000        5.405000
 Si        3.760000        1.999000        9.008000
 Si        6.217000        2.257000        7.206000
 O        -1.082000        5.392000        6.047000
 O        -2.159000        6.014000        8.366000
 O         0.785000        4.877000        9.650000
 O        -1.672000        7.889000        6.564000
 O         0.298000        6.752000        7.848000
 O        -3.539000        7.374000       10.167000
 Si       -0.149000        4.255000        5.405000
 Si       -3.611000        6.254000        9.008000
 Si       -1.154000        6.512000        7.206000
 O         3.831000        5.392000        6.047000
 O         2.754000        6.014000        8.366000
 O         5.699000        4.877000        9.650000
 O         3.242000        7.889000        6.564000
 O         5.211000        6.752000        7.848000
 O         1.374000        7.374000       10.167000
 Si        4.765000        4.255000        5.405000
 Si        1.303000        6.254000        9.008000
 Si        3.760000        6.512000        7.206000
